<?xml version='1.0' encoding='UTF-8'?>
<edges>
  <edge id="1" from="25" to="24" numLanes="2" width="5.375" shape="-4.500000,-105.000000 64.500000,-105.000000 "/>
  <edge id="-1" to="25" from="24" numLanes="2" width="5.375" shape="64.500000,-105.000000 -4.500000,-105.000000 "/>
  <edge id="3" from="23" to="22" numLanes="2" width="5.375" shape="105.000000,-64.500000 104.999747,4.500000 "/>
  <edge id="-3" to="23" from="22" numLanes="2" width="5.375" shape="104.999747,4.500000 105.000000,-64.500000 "/>
  <edge id="5" from="28" to="16" numLanes="2" width="5.375" shape="-4.500000,45.000000 25.500000,45.000000 "/>
  <edge id="-5" to="28" from="16" numLanes="2" width="5.375" shape="25.500000,45.000000 -4.500000,45.000000 "/>
  <edge id="7" from="17" to="29" numLanes="2" width="5.375" shape="-45.000000,-25.500000 -45.000110,4.500000 "/>
  <edge id="-7" to="17" from="29" numLanes="2" width="5.375" shape="-45.000110,4.500000 -45.000000,-25.500000 "/>
  <edge id="8" from="17" to="26" numLanes="2" width="5.375" shape="-25.500000,-45.000000 4.500000,-45.000000 "/>
  <edge id="-8" to="17" from="26" numLanes="2" width="5.375" shape="4.500000,-45.000000 -25.500000,-45.000000 "/>
  <edge id="10" from="27" to="16" numLanes="2" width="5.375" shape="45.000000,-4.500000 44.999890,25.500000 "/>
  <edge id="-10" to="27" from="16" numLanes="2" width="5.375" shape="44.999890,25.500000 45.000000,-4.500000 "/>
  <edge id="12" from="21" to="20" numLanes="2" width="5.375" shape="4.500000,105.000000 -64.500000,105.006393 "/>
  <edge id="-12" to="21" from="20" numLanes="2" width="5.375" shape="-64.500000,105.006393 4.500000,105.000000 "/>
  <edge id="14" from="19" to="18" numLanes="2" width="5.375" shape="-105.000000,64.500000 -105.000253,-4.500000 "/>
  <edge id="-14" to="19" from="18" numLanes="2" width="5.375" shape="-105.000253,-4.500000 -105.000000,64.500000 "/>
  <edge id="0" from="25" to="17" numLanes="2" width="5.375" shape="-4.503752,-105.000000 -8.473438,-104.804613 -12.404857,-104.221068 -16.260147,-103.254986 -20.002180,-101.915671 -23.594918,-100.216020 -27.003761,-98.172403 -30.195879,-95.804501 -33.140531,-93.135119 -35.809357,-90.189963 -38.176656,-86.997397 -40.219628,-83.588168 -41.918600,-79.995109 -43.257208,-76.252823 -44.222561,-72.397350 -44.805363,-68.465821 -45.000000,-64.496099 "/>
  <edge id="-0" to="25" from="17" numLanes="2" width="5.375" shape="-45.000000,-64.496099 -44.805363,-68.465821 -44.222561,-72.397350 -43.257208,-76.252823 -41.918600,-79.995109 -40.219628,-83.588168 -38.176656,-86.997397 -35.809357,-90.189963 -33.140531,-93.135119 -30.195879,-95.804501 -27.003761,-98.172403 -23.594918,-100.216020 -20.002180,-101.915671 -16.260147,-103.254986 -12.404857,-104.221068 -8.473438,-104.804613 -4.503752,-105.000000 "/>
  <edge id="2" from="23" to="24" numLanes="2" width="5.375" shape="105.000000,-64.500149 104.804966,-68.469851 104.221771,-72.401322 103.256032,-76.256698 101.917050,-79.998851 100.217719,-83.591740 98.174406,-87.000765 95.806788,-90.193093 93.137667,-93.137982 90.192748,-95.807071 87.000393,-98.174654 83.591346,-100.217930 79.998438,-101.917221 76.256271,-103.256162 72.400884,-104.221858 68.469407,-104.805010 64.499702,-105.000000 "/>
  <edge id="-2" to="23" from="24" numLanes="2" width="5.375" shape="64.499702,-105.000000 68.469407,-104.805010 72.400884,-104.221858 76.256271,-103.256162 79.998438,-101.917221 83.591346,-100.217930 87.000393,-98.174654 90.192748,-95.807071 93.137667,-93.137982 95.806788,-90.193093 98.174406,-87.000765 100.217719,-83.591740 101.917050,-79.998851 103.256032,-76.256698 104.221771,-72.401322 104.804966,-68.469851 105.000000,-64.500149 "/>
  <edge id="4" from="16" to="22" numLanes="2" width="5.375" shape="64.500000,45.000000 68.469703,44.804981 72.401176,44.221800 76.256556,43.256076 79.998713,41.917107 83.591609,40.217789 87.000641,38.174488 90.192978,35.806882 93.137877,33.137772 95.806976,30.192863 98.174571,27.000517 100.217859,23.591478 101.917164,19.998576 103.256119,16.256414 104.221829,12.401030 104.804995,8.469555 105.000000,4.499851 "/>
  <edge id="-4" to="16" from="22" numLanes="2" width="5.375" shape="105.000000,4.499851 104.804995,8.469555 104.221829,12.401030 103.256119,16.256414 101.917164,19.998576 100.217859,23.591478 98.174571,27.000517 95.806976,30.192863 93.137877,33.137772 90.192978,35.806882 87.000641,38.174488 83.591609,40.217789 79.998713,41.917107 76.256556,43.256076 72.401176,44.221800 68.469703,44.804981 64.500000,45.000000 "/>
  <edge id="6" from="29" to="28" numLanes="2" width="5.375" shape="-45.000000,4.499851 -44.804995,8.469555 -44.221829,12.401030 -43.256119,16.256414 -41.917164,19.998576 -40.217859,23.591478 -38.174571,27.000517 -35.806976,30.192863 -33.137877,33.137772 -30.192978,35.806882 -27.000641,38.174488 -23.591609,40.217789 -19.998713,41.917107 -16.256556,43.256076 -12.401176,44.221800 -8.469703,44.804981 -4.500000,45.000000 "/>
  <edge id="-6" to="29" from="28" numLanes="2" width="5.375" shape="-4.500000,45.000000 -8.469703,44.804981 -12.401176,44.221800 -16.256556,43.256076 -19.998713,41.917107 -23.591609,40.217789 -27.000641,38.174488 -30.192978,35.806882 -33.137877,33.137772 -35.806976,30.192863 -38.174571,27.000517 -40.217859,23.591478 -41.917164,19.998576 -43.256119,16.256414 -44.221829,12.401030 -44.804995,8.469555 -45.000000,4.499851 "/>
  <edge id="9" from="27" to="26" numLanes="2" width="5.375" shape="45.000000,-4.500149 44.804966,-8.469851 44.221771,-12.401322 43.256032,-16.256698 41.917050,-19.998851 40.217719,-23.591740 38.174406,-27.000765 35.806788,-30.193093 33.137667,-33.137982 30.192748,-35.807071 27.000393,-38.174654 23.591346,-40.217930 19.998438,-41.917221 16.256271,-43.256162 12.400884,-44.221858 8.469407,-44.805010 4.499702,-45.000000 "/>
  <edge id="-9" to="27" from="26" numLanes="2" width="5.375" shape="4.499702,-45.000000 8.469407,-44.805010 12.400884,-44.221858 16.256271,-43.256162 19.998438,-41.917221 23.591346,-40.217930 27.000393,-38.174654 30.192748,-35.807071 33.137667,-33.137982 35.806788,-30.193093 38.174406,-27.000765 40.217719,-23.591740 41.917050,-19.998851 43.256032,-16.256698 44.221771,-12.401322 44.804966,-8.469851 45.000000,-4.500149 "/>
  <edge id="11" from="21" to="16" numLanes="2" width="5.375" shape="4.500000,105.000000 8.469703,104.804981 12.401176,104.221800 16.256556,103.256076 19.998713,101.917107 23.591609,100.217789 27.000641,98.174488 30.192978,95.806882 33.137877,93.137772 35.806976,90.192863 38.174571,87.000517 40.217859,83.591478 41.917164,79.998576 43.256119,76.256414 44.221829,72.401030 44.804995,68.469555 45.000000,64.499851 "/>
  <edge id="-11" to="21" from="16" numLanes="2" width="5.375" shape="45.000000,64.499851 44.804995,68.469555 44.221829,72.401030 43.256119,76.256414 41.917164,79.998576 40.217859,83.591478 38.174571,87.000517 35.806976,90.192863 33.137877,93.137772 30.192978,95.806882 27.000641,98.174488 23.591609,100.217789 19.998713,101.917107 16.256556,103.256076 12.401176,104.221800 8.469703,104.804981 4.500000,105.000000 "/>
  <edge id="13" from="19" to="20" numLanes="2" width="5.375" shape="-105.000000,64.499851 -104.804995,68.469555 -104.221829,72.401030 -103.256119,76.256414 -101.917164,79.998576 -100.217859,83.591478 -98.174571,87.000517 -95.806976,90.192863 -93.137877,93.137772 -90.192978,95.806882 -87.000641,98.174488 -83.591609,100.217789 -79.998713,101.917107 -76.256556,103.256076 -72.401176,104.221800 -68.469703,104.804981 -64.500000,105.000000 "/>
  <edge id="-13" to="19" from="20" numLanes="2" width="5.375" shape="-64.500000,105.000000 -68.469703,104.804981 -72.401176,104.221800 -76.256556,103.256076 -79.998713,101.917107 -83.591609,100.217789 -87.000641,98.174488 -90.192978,95.806882 -93.137877,93.137772 -95.806976,90.192863 -98.174571,87.000517 -100.217859,83.591478 -101.917164,79.998576 -103.256119,76.256414 -104.221829,72.401030 -104.804995,68.469555 -105.000000,64.499851 "/>
  <edge id="15" from="17" to="18" numLanes="2" width="5.375" shape="-64.503752,-45.000000 -68.473438,-44.804613 -72.404857,-44.221068 -76.260147,-43.254986 -80.002180,-41.915671 -83.594918,-40.216020 -87.003761,-38.172403 -90.195879,-35.804501 -93.140531,-33.135119 -95.809357,-30.189963 -98.176656,-26.997397 -100.219628,-23.588168 -101.918600,-19.995109 -103.257208,-16.252823 -104.222561,-12.397350 -104.805363,-8.465821 -105.000000,-4.496099 "/>
  <edge id="-15" to="17" from="18" numLanes="2" width="5.375" shape="-105.000000,-4.496099 -104.805363,-8.465821 -104.222561,-12.397350 -103.257208,-16.252823 -101.918600,-19.995109 -100.219628,-23.588168 -98.176656,-26.997397 -95.809357,-30.189963 -93.140531,-33.135119 -90.195879,-35.804501 -87.003761,-38.172403 -83.594918,-40.216020 -80.002180,-41.915671 -76.260147,-43.254986 -72.404857,-44.221068 -68.473438,-44.804613 -64.503752,-45.000000 "/>
</edges>
