<?xml version="1.0" encoding="UTF-8"?>

<!-- generated on 2026-04-29T17:58:04.640678-05:00 by Eclipse SUMO netconvert 1.26.0
<netconvertConfiguration xmlns:xsi="http://www.w3.org/2001/XMLSchema-instance" xsi:noNamespaceSchemaLocation="http://sumo.dlr.de/xsd/netconvertConfiguration.xsd">

    <input>
        <node-files value="city_net/sumo.nod.xml"/>
        <edge-files value="city_net/sumo.edg.xml"/>
    </input>

    <output>
        <output-file value="city_net/sumo.net.xml"/>
    </output>

</netconvertConfiguration>
-->

<net version="1.20" junctionCornerDetail="5" limitTurnSpeed="5.50" xmlns:xsi="http://www.w3.org/2001/XMLSchema-instance" xsi:noNamespaceSchemaLocation="http://sumo.dlr.de/xsd/net_file.xsd">

    <location netOffset="105.00,105.00" convBoundary="0.00,0.00,210.00,210.01" origBoundary="-105.00,-105.00,105.00,105.01" projParameter="!"/>

    <edge id=":16_0" function="internal">
        <lane id=":16_0_0" index="0" speed="4.85" length="3.55" width="5.38" shape="160.75,158.51 159.80,158.69 159.11,159.13 158.67,159.81 158.49,160.75"/>
    </edge>
    <edge id=":16_1" function="internal">
        <lane id=":16_1_0" index="0" speed="13.89" length="21.50" width="5.38" shape="160.75,158.51 139.25,158.06"/>
        <lane id=":16_1_1" index="1" speed="13.89" length="21.50" width="5.38" shape="160.75,153.13 139.25,152.69"/>
    </edge>
    <edge id=":16_3" function="internal">
        <lane id=":16_3_0" index="0" speed="9.60" length="20.95" width="5.38" shape="160.75,153.13 155.94,152.01 151.62,148.73 148.51,144.18 147.31,139.25"/>
    </edge>
    <edge id=":16_4" function="internal">
        <lane id=":16_4_0" index="0" speed="4.73" length="7.86" width="5.38" shape="160.75,153.13 158.73,151.79 158.06,150.44 158.73,149.10 160.75,147.75"/>
    </edge>
    <edge id=":16_5" function="internal">
        <lane id=":16_5_0" index="0" speed="5.15" length="4.74" width="5.38" shape="158.06,139.25 158.23,140.66 158.73,141.66 159.57,142.22 160.75,142.37"/>
    </edge>
    <edge id=":16_6" function="internal">
        <lane id=":16_6_0" index="0" speed="13.89" length="21.50" width="5.38" shape="158.06,139.25 158.49,160.75"/>
        <lane id=":16_6_1" index="1" speed="13.89" length="21.50" width="5.38" shape="152.69,139.25 153.11,160.75"/>
    </edge>
    <edge id=":16_8" function="internal">
        <lane id=":16_8_0" index="0" speed="9.92" length="7.40" width="5.38" shape="152.69,139.25 151.85,145.13 151.09,146.38"/>
    </edge>
    <edge id=":16_9" function="internal">
        <lane id=":16_9_0" index="0" speed="4.73" length="2.96" width="5.38" shape="152.69,139.25 151.34,141.27 150.86,141.51"/>
    </edge>
    <edge id=":16_20" function="internal">
        <lane id=":16_20_0" index="0" speed="9.92" length="14.27" width="5.38" shape="151.09,146.38 149.33,149.33 145.13,151.85 139.25,152.69"/>
    </edge>
    <edge id=":16_21" function="internal">
        <lane id=":16_21_0" index="0" speed="4.73" length="4.89" width="5.38" shape="150.86,141.51 150.00,141.94 148.66,141.27 147.31,139.25"/>
    </edge>
    <edge id=":16_10" function="internal">
        <lane id=":16_10_0" index="0" speed="5.06" length="4.33" width="5.38" shape="139.25,141.94 140.43,141.77 141.27,141.27 141.77,140.43 141.94,139.25"/>
    </edge>
    <edge id=":16_11" function="internal">
        <lane id=":16_11_0" index="0" speed="13.89" length="21.50" width="5.38" shape="139.25,141.94 160.75,142.37"/>
        <lane id=":16_11_1" index="1" speed="13.89" length="21.50" width="5.38" shape="139.25,147.31 160.75,147.75"/>
    </edge>
    <edge id=":16_13" function="internal">
        <lane id=":16_13_0" index="0" speed="9.60" length="20.93" width="5.38" shape="139.25,147.31 144.17,148.51 148.71,151.62 151.98,155.94 153.11,160.75"/>
    </edge>
    <edge id=":16_14" function="internal">
        <lane id=":16_14_0" index="0" speed="4.73" length="7.85" width="5.38" shape="139.25,147.31 141.27,148.66 141.94,150.00 141.27,151.34 139.25,152.69"/>
    </edge>
    <edge id=":16_15" function="internal">
        <lane id=":16_15_0" index="0" speed="5.15" length="4.72" width="5.38" shape="142.35,160.75 142.20,159.57 141.64,158.73 140.65,158.23 139.25,158.06"/>
    </edge>
    <edge id=":16_16" function="internal">
        <lane id=":16_16_0" index="0" speed="13.89" length="21.50" width="5.38" shape="142.35,160.75 141.94,139.25"/>
        <lane id=":16_16_1" index="1" speed="13.89" length="21.50" width="5.38" shape="147.73,160.75 147.31,139.25"/>
    </edge>
    <edge id=":16_18" function="internal">
        <lane id=":16_18_0" index="0" speed="10.04" length="6.66" width="5.38" shape="147.73,160.75 148.76,155.30 149.36,154.36"/>
    </edge>
    <edge id=":16_19" function="internal">
        <lane id=":16_19_0" index="0" speed="4.73" length="2.97" width="5.38" shape="147.73,160.75 149.07,158.73 149.56,158.49"/>
    </edge>
    <edge id=":16_22" function="internal">
        <lane id=":16_22_0" index="0" speed="10.04" length="13.90" width="5.38" shape="149.36,154.36 151.28,151.31 155.28,148.80 160.75,147.75"/>
    </edge>
    <edge id=":16_23" function="internal">
        <lane id=":16_23_0" index="0" speed="4.73" length="4.89" width="5.38" shape="149.56,158.49 150.42,158.06 151.76,158.73 153.11,160.75"/>
    </edge>
    <edge id=":17_0" function="internal">
        <lane id=":17_0_0" index="0" speed="5.15" length="4.74" width="5.38" shape="51.94,70.75 51.77,69.34 51.27,68.34 50.43,67.78 49.25,67.63"/>
    </edge>
    <edge id=":17_1" function="internal">
        <lane id=":17_1_0" index="0" speed="13.89" length="21.50" width="5.38" shape="51.94,70.75 51.51,49.25"/>
        <lane id=":17_1_1" index="1" speed="13.89" length="21.50" width="5.38" shape="57.31,70.75 56.89,49.25"/>
    </edge>
    <edge id=":17_3" function="internal">
        <lane id=":17_3_0" index="0" speed="9.92" length="7.40" width="5.38" shape="57.31,70.75 58.15,64.87 58.91,63.62"/>
    </edge>
    <edge id=":17_4" function="internal">
        <lane id=":17_4_0" index="0" speed="4.73" length="2.96" width="5.38" shape="57.31,70.75 58.66,68.73 59.14,68.49"/>
    </edge>
    <edge id=":17_20" function="internal">
        <lane id=":17_20_0" index="0" speed="9.92" length="14.27" width="5.38" shape="58.91,63.62 60.67,60.67 64.87,58.15 70.75,57.31"/>
    </edge>
    <edge id=":17_21" function="internal">
        <lane id=":17_21_0" index="0" speed="4.73" length="4.89" width="5.38" shape="59.14,68.49 60.00,68.06 61.34,68.73 62.69,70.75"/>
    </edge>
    <edge id=":17_5" function="internal">
        <lane id=":17_5_0" index="0" speed="5.06" length="4.33" width="5.38" shape="70.75,68.06 69.57,68.23 68.73,68.73 68.23,69.57 68.06,70.75"/>
    </edge>
    <edge id=":17_6" function="internal">
        <lane id=":17_6_0" index="0" speed="13.89" length="21.50" width="5.38" shape="70.75,68.06 49.25,67.63"/>
        <lane id=":17_6_1" index="1" speed="13.89" length="21.50" width="5.38" shape="70.75,62.69 49.25,62.25"/>
    </edge>
    <edge id=":17_8" function="internal">
        <lane id=":17_8_0" index="0" speed="9.60" length="20.93" width="5.38" shape="70.75,62.69 65.83,61.49 61.29,58.38 58.02,54.06 56.89,49.25"/>
    </edge>
    <edge id=":17_9" function="internal">
        <lane id=":17_9_0" index="0" speed="4.73" length="7.85" width="5.38" shape="70.75,62.69 68.73,61.34 68.06,60.00 68.73,58.66 70.75,57.31"/>
    </edge>
    <edge id=":17_10" function="internal">
        <lane id=":17_10_0" index="0" speed="5.15" length="4.72" width="5.38" shape="67.65,49.25 67.80,50.43 68.36,51.27 69.35,51.77 70.75,51.94"/>
    </edge>
    <edge id=":17_11" function="internal">
        <lane id=":17_11_0" index="0" speed="13.89" length="21.50" width="5.38" shape="67.65,49.25 68.06,70.75"/>
        <lane id=":17_11_1" index="1" speed="13.89" length="21.50" width="5.38" shape="62.27,49.25 62.69,70.75"/>
    </edge>
    <edge id=":17_13" function="internal">
        <lane id=":17_13_0" index="0" speed="10.04" length="6.66" width="5.38" shape="62.27,49.25 61.24,54.70 60.64,55.64"/>
    </edge>
    <edge id=":17_14" function="internal">
        <lane id=":17_14_0" index="0" speed="4.73" length="2.97" width="5.38" shape="62.27,49.25 60.93,51.27 60.44,51.51"/>
    </edge>
    <edge id=":17_22" function="internal">
        <lane id=":17_22_0" index="0" speed="10.04" length="13.90" width="5.38" shape="60.64,55.64 58.72,58.69 54.72,61.20 49.25,62.25"/>
    </edge>
    <edge id=":17_23" function="internal">
        <lane id=":17_23_0" index="0" speed="4.73" length="4.89" width="5.38" shape="60.44,51.51 59.58,51.94 58.24,51.27 56.89,49.25"/>
    </edge>
    <edge id=":17_15" function="internal">
        <lane id=":17_15_0" index="0" speed="4.85" length="3.55" width="5.38" shape="49.25,51.49 50.20,51.31 50.89,50.87 51.33,50.19 51.51,49.25"/>
    </edge>
    <edge id=":17_16" function="internal">
        <lane id=":17_16_0" index="0" speed="13.89" length="21.50" width="5.38" shape="49.25,51.49 70.75,51.94"/>
        <lane id=":17_16_1" index="1" speed="13.89" length="21.50" width="5.38" shape="49.25,56.87 70.75,57.31"/>
    </edge>
    <edge id=":17_18" function="internal">
        <lane id=":17_18_0" index="0" speed="9.60" length="20.95" width="5.38" shape="49.25,56.87 54.06,57.99 58.38,61.27 61.49,65.82 62.69,70.75"/>
    </edge>
    <edge id=":17_19" function="internal">
        <lane id=":17_19_0" index="0" speed="4.73" length="7.86" width="5.38" shape="49.25,56.87 51.27,58.21 51.94,59.56 51.27,60.90 49.25,62.25"/>
    </edge>
    <edge id=":18_0" function="internal">
        <lane id=":18_0_0" index="0" speed="13.89" length="0.53" width="5.38" shape="-8.06,100.63 -8.05,99.98"/>
        <lane id=":18_0_1" index="1" speed="13.89" length="0.53" width="5.38" shape="-2.69,100.63 -2.68,100.24"/>
    </edge>
    <edge id=":18_2" function="internal">
        <lane id=":18_2_0" index="0" speed="13.89" length="0.13" width="5.38" shape="8.06,100.75 8.06,100.63"/>
        <lane id=":18_2_1" index="1" speed="13.89" length="0.13" width="5.38" shape="2.69,100.49 2.69,100.63"/>
    </edge>
    <edge id=":19_0" function="internal">
        <lane id=":19_0_0" index="0" speed="13.89" length="0.81" width="5.38" shape="-8.04,170.18 -8.06,169.23"/>
        <lane id=":19_0_1" index="1" speed="13.89" length="0.81" width="5.38" shape="-2.67,169.91 -2.69,169.23"/>
    </edge>
    <edge id=":19_2" function="internal">
        <lane id=":19_2_0" index="0" speed="13.89" length="0.27" width="5.38" shape="8.06,169.23 8.07,169.36"/>
        <lane id=":19_2_1" index="1" speed="13.89" length="0.27" width="5.38" shape="2.69,169.23 2.70,169.64"/>
    </edge>
    <edge id=":20_0" function="internal">
        <lane id=":20_0_0" index="0" speed="13.89" length="0.74" width="5.38" shape="40.97,218.07 40.09,218.05"/>
        <lane id=":20_0_1" index="1" speed="13.89" length="0.74" width="5.38" shape="40.97,212.70 40.36,212.68"/>
    </edge>
    <edge id=":20_2" function="internal">
        <lane id=":20_2_0" index="0" speed="13.89" length="0.20" width="5.38" shape="40.91,201.95 40.97,201.95"/>
        <lane id=":20_2_1" index="1" speed="13.89" length="0.20" width="5.38" shape="40.64,207.32 40.97,207.32"/>
    </edge>
    <edge id=":21_0" function="internal">
        <lane id=":21_0_0" index="0" speed="13.89" length="0.81" width="5.38" shape="110.18,218.04 109.23,218.06"/>
        <lane id=":21_0_1" index="1" speed="13.89" length="0.81" width="5.38" shape="109.90,212.67 109.23,212.69"/>
    </edge>
    <edge id=":21_2" function="internal">
        <lane id=":21_2_0" index="0" speed="13.89" length="0.27" width="5.38" shape="109.23,201.94 109.36,201.93"/>
        <lane id=":21_2_1" index="1" speed="13.89" length="0.27" width="5.38" shape="109.23,207.31 109.63,207.30"/>
    </edge>
    <edge id=":22_0" function="internal">
        <lane id=":22_0_0" index="0" speed="13.89" length="0.53" width="5.38" shape="218.06,109.37 218.05,110.02"/>
        <lane id=":22_0_1" index="1" speed="13.89" length="0.53" width="5.38" shape="212.69,109.37 212.68,109.76"/>
    </edge>
    <edge id=":22_2" function="internal">
        <lane id=":22_2_0" index="0" speed="13.89" length="0.13" width="5.38" shape="201.94,109.25 201.94,109.37"/>
        <lane id=":22_2_1" index="1" speed="13.89" length="0.13" width="5.38" shape="207.31,109.51 207.31,109.37"/>
    </edge>
    <edge id=":23_0" function="internal">
        <lane id=":23_0_0" index="0" speed="13.89" length="0.13" width="5.38" shape="201.94,40.63 201.94,40.75"/>
        <lane id=":23_0_1" index="1" speed="13.89" length="0.13" width="5.38" shape="207.31,40.63 207.31,40.49"/>
    </edge>
    <edge id=":23_2" function="internal">
        <lane id=":23_2_0" index="0" speed="13.89" length="0.53" width="5.38" shape="218.05,39.98 218.06,40.63"/>
        <lane id=":23_2_1" index="1" speed="13.89" length="0.53" width="5.38" shape="212.68,40.24 212.69,40.63"/>
    </edge>
    <edge id=":24_0" function="internal">
        <lane id=":24_0_0" index="0" speed="13.89" length="0.13" width="5.38" shape="169.25,8.06 169.37,8.06"/>
        <lane id=":24_0_1" index="1" speed="13.89" length="0.13" width="5.38" shape="169.51,2.69 169.37,2.69"/>
    </edge>
    <edge id=":24_2" function="internal">
        <lane id=":24_2_0" index="0" speed="13.89" length="0.53" width="5.38" shape="169.37,-8.06 170.02,-8.05"/>
        <lane id=":24_2_1" index="1" speed="13.89" length="0.53" width="5.38" shape="169.37,-2.69 169.76,-2.68"/>
    </edge>
    <edge id=":25_0" function="internal">
        <lane id=":25_0_0" index="0" speed="13.89" length="0.27" width="5.38" shape="100.77,8.06 100.64,8.07"/>
        <lane id=":25_0_1" index="1" speed="13.89" length="0.27" width="5.38" shape="100.77,2.69 100.36,2.70"/>
    </edge>
    <edge id=":25_2" function="internal">
        <lane id=":25_2_0" index="0" speed="13.89" length="0.81" width="5.38" shape="99.82,-8.04 100.77,-8.06"/>
        <lane id=":25_2_1" index="1" speed="13.89" length="0.81" width="5.38" shape="100.09,-2.67 100.77,-2.69"/>
    </edge>
    <edge id=":26_0" function="internal">
        <lane id=":26_0_0" index="0" speed="13.89" length="0.13" width="5.38" shape="109.25,68.06 109.37,68.06"/>
        <lane id=":26_0_1" index="1" speed="13.89" length="0.13" width="5.38" shape="109.51,62.69 109.37,62.69"/>
    </edge>
    <edge id=":26_2" function="internal">
        <lane id=":26_2_0" index="0" speed="13.89" length="0.53" width="5.38" shape="109.37,51.94 110.02,51.95"/>
        <lane id=":26_2_1" index="1" speed="13.89" length="0.53" width="5.38" shape="109.37,57.31 109.76,57.32"/>
    </edge>
    <edge id=":27_0" function="internal">
        <lane id=":27_0_0" index="0" speed="13.89" length="0.13" width="5.38" shape="141.94,100.63 141.94,100.75"/>
        <lane id=":27_0_1" index="1" speed="13.89" length="0.13" width="5.38" shape="147.31,100.63 147.31,100.49"/>
    </edge>
    <edge id=":27_2" function="internal">
        <lane id=":27_2_0" index="0" speed="13.89" length="0.53" width="5.38" shape="158.05,99.98 158.06,100.63"/>
        <lane id=":27_2_1" index="1" speed="13.89" length="0.53" width="5.38" shape="152.68,100.24 152.69,100.63"/>
    </edge>
    <edge id=":28_0" function="internal">
        <lane id=":28_0_0" index="0" speed="13.89" length="0.81" width="5.38" shape="100.77,158.06 99.82,158.04"/>
        <lane id=":28_0_1" index="1" speed="13.89" length="0.81" width="5.38" shape="100.77,152.69 100.09,152.67"/>
    </edge>
    <edge id=":28_2" function="internal">
        <lane id=":28_2_0" index="0" speed="13.89" length="0.27" width="5.38" shape="100.64,141.93 100.77,141.94"/>
        <lane id=":28_2_1" index="1" speed="13.89" length="0.27" width="5.38" shape="100.36,147.30 100.77,147.31"/>
    </edge>
    <edge id=":29_0" function="internal">
        <lane id=":29_0_0" index="0" speed="13.89" length="0.81" width="5.38" shape="51.96,110.18 51.94,109.23"/>
        <lane id=":29_0_1" index="1" speed="13.89" length="0.81" width="5.38" shape="57.33,109.91 57.31,109.23"/>
    </edge>
    <edge id=":29_2" function="internal">
        <lane id=":29_2_0" index="0" speed="13.89" length="0.27" width="5.38" shape="68.06,109.23 68.07,109.36"/>
        <lane id=":29_2_1" index="1" speed="13.89" length="0.27" width="5.38" shape="62.69,109.23 62.70,109.64"/>
    </edge>

    <edge id="-0" from="17" to="25" priority="-1" shape="60.00,40.50 60.19,36.53 60.78,32.60 61.74,28.75 63.08,25.00 64.78,21.41 66.82,18.00 69.19,14.81 71.86,11.86 74.80,9.20 78.00,6.83 81.41,4.78 85.00,3.08 88.74,1.75 92.60,0.78 96.53,0.20 100.50,0.00">
        <lane id="-0_0" index="0" speed="13.89" length="80.26" width="5.38" shape="51.51,49.25 52.16,35.74 52.86,31.02 54.01,26.41 55.62,21.91 57.66,17.61 60.11,13.52 62.95,9.69 66.15,6.15 69.68,2.96 73.51,0.12 77.60,-2.34 81.92,-4.38 86.40,-5.98 91.03,-7.14 95.74,-7.83 99.82,-8.04"/>
        <lane id="-0_1" index="1" speed="13.89" length="80.26" width="5.38" shape="56.89,49.25 57.51,36.27 58.14,32.07 59.16,27.97 60.59,23.97 62.41,20.14 64.58,16.51 67.11,13.10 69.96,9.96 73.09,7.12 76.50,4.59 80.14,2.41 83.97,0.59 87.96,-0.83 92.08,-1.86 96.27,-2.48 100.09,-2.67"/>
    </edge>
    <edge id="-1" from="24" to="25" priority="-1">
        <lane id="-1_0" index="0" speed="13.89" length="68.60" width="5.38" shape="169.37,8.06 100.77,8.06"/>
        <lane id="-1_1" index="1" speed="13.89" length="68.60" width="5.38" shape="169.37,2.69 100.77,2.69"/>
    </edge>
    <edge id="-10" from="16" to="27" priority="-1" shape="150.00,130.50 150.00,100.50">
        <lane id="-10_0" index="0" speed="13.89" length="38.62" width="5.38" shape="141.94,139.25 141.94,100.63"/>
        <lane id="-10_1" index="1" speed="13.89" length="38.62" width="5.38" shape="147.31,139.25 147.31,100.63"/>
    </edge>
    <edge id="-11" from="16" to="21" priority="-1" shape="150.00,169.50 149.81,173.47 149.22,177.40 148.26,181.26 146.92,185.00 145.22,188.59 143.17,192.00 140.81,195.19 138.14,198.14 135.19,200.81 132.00,203.17 128.59,205.22 125.00,206.92 121.26,208.26 117.40,209.22 113.47,209.80 109.50,210.00">
        <lane id="-11_0" index="0" speed="13.89" length="80.26" width="5.38" shape="158.49,160.75 157.84,174.26 157.14,178.97 155.99,183.60 154.38,188.09 152.34,192.40 149.88,196.48 147.05,200.31 143.85,203.85 140.31,207.05 136.48,209.88 132.40,212.34 128.09,214.38 123.60,215.99 118.97,217.14 114.26,217.83 110.18,218.04"/>
        <lane id="-11_1" index="1" speed="13.89" length="80.26" width="5.38" shape="153.11,160.75 152.49,173.73 151.86,177.92 150.84,182.04 149.41,186.03 147.59,189.86 145.41,193.49 142.89,196.90 140.04,200.04 136.90,202.89 133.49,205.41 129.86,207.59 126.03,209.41 122.04,210.84 117.92,211.86 113.73,212.48 109.90,212.67"/>
    </edge>
    <edge id="-12" from="20" to="21" priority="-1">
        <lane id="-12_0" index="0" speed="13.89" length="68.26" width="5.38" shape="40.97,201.95 109.23,201.94"/>
        <lane id="-12_1" index="1" speed="13.89" length="68.26" width="5.38" shape="40.97,207.32 109.23,207.31"/>
    </edge>
    <edge id="-13" from="20" to="19" priority="-1" shape="40.50,210.00 36.53,209.80 32.60,209.22 28.74,208.26 25.00,206.92 21.41,205.22 18.00,203.17 14.81,200.81 11.86,198.14 9.19,195.19 6.83,192.00 4.78,188.59 3.08,185.00 1.74,181.26 0.78,177.40 0.20,173.47 0.00,169.50">
        <lane id="-13_0" index="0" speed="13.89" length="71.23" width="5.38" shape="40.09,218.05 35.74,217.83 31.03,217.14 26.40,215.99 21.91,214.38 17.60,212.34 13.52,209.88 9.69,207.05 6.15,203.85 2.95,200.31 0.12,196.48 -2.34,192.40 -4.38,188.09 -5.99,183.60 -7.14,178.97 -7.83,174.26 -8.04,170.18"/>
        <lane id="-13_1" index="1" speed="13.89" length="71.23" width="5.38" shape="40.36,212.68 36.27,212.48 32.08,211.86 27.96,210.84 23.97,209.41 20.14,207.59 16.51,205.41 13.10,202.89 9.96,200.04 7.11,196.90 4.59,193.49 2.41,189.86 0.59,186.03 -0.84,182.04 -1.86,177.92 -2.48,173.73 -2.67,169.91"/>
    </edge>
    <edge id="-14" from="18" to="19" priority="-1">
        <lane id="-14_0" index="0" speed="13.89" length="68.60" width="5.38" shape="8.06,100.63 8.06,169.23"/>
        <lane id="-14_1" index="1" speed="13.89" length="68.60" width="5.38" shape="2.69,100.63 2.69,169.23"/>
    </edge>
    <edge id="-15" from="18" to="17" priority="-1" shape="0.00,100.50 0.19,96.53 0.78,92.60 1.74,88.75 3.08,85.00 4.78,81.41 6.82,78.00 9.19,74.81 11.86,71.86 14.80,69.20 18.00,66.83 21.41,64.78 25.00,63.08 28.74,61.75 32.60,60.78 36.53,60.20 40.50,60.00">
        <lane id="-15_0" index="0" speed="13.89" length="80.41" width="5.38" shape="-8.05,99.98 -7.84,95.74 -7.14,91.02 -5.99,86.41 -4.38,81.91 -2.34,77.61 0.11,73.52 2.95,69.69 6.15,66.15 9.68,62.96 13.51,60.12 17.60,57.66 21.92,55.62 26.40,54.02 31.03,52.86 35.74,52.17 49.25,51.49"/>
        <lane id="-15_1" index="1" speed="13.89" length="80.41" width="5.38" shape="-2.68,100.24 -2.49,96.27 -1.86,92.07 -0.84,87.97 0.59,83.97 2.41,80.14 4.58,76.51 7.11,73.10 9.96,69.96 13.09,67.12 16.50,64.59 20.14,62.41 23.97,60.59 27.96,59.17 32.08,58.14 36.27,57.52 49.25,56.87"/>
    </edge>
    <edge id="-2" from="24" to="23" priority="-1" shape="169.50,0.00 173.47,0.19 177.40,0.78 181.26,1.74 185.00,3.08 188.59,4.78 192.00,6.83 195.19,9.19 198.14,11.86 200.81,14.81 203.17,18.00 205.22,21.41 206.92,25.00 208.26,28.74 209.22,32.60 209.81,36.53 210.00,40.50">
        <lane id="-2_0" index="0" speed="13.89" length="71.26" width="5.38" shape="170.02,-8.05 174.26,-7.84 178.97,-7.14 183.60,-5.99 188.09,-4.38 192.40,-2.34 196.48,0.12 200.31,2.95 203.85,6.15 207.05,9.69 209.88,13.52 212.34,17.60 214.38,21.91 215.99,26.40 217.14,31.03 217.84,35.74 218.05,39.98"/>
        <lane id="-2_1" index="1" speed="13.89" length="71.26" width="5.38" shape="169.76,-2.68 173.73,-2.49 177.92,-1.86 182.04,-0.84 186.03,0.59 189.86,2.41 193.49,4.59 196.90,7.11 200.04,9.96 202.89,13.10 205.41,16.51 207.59,20.14 209.41,23.97 210.84,27.96 211.86,32.08 212.49,36.27 212.68,40.24"/>
    </edge>
    <edge id="-3" from="22" to="23" priority="-1">
        <lane id="-3_0" index="0" speed="13.89" length="68.73" width="5.38" shape="201.94,109.37 201.94,40.63"/>
        <lane id="-3_1" index="1" speed="13.89" length="68.73" width="5.38" shape="207.31,109.37 207.31,40.63"/>
    </edge>
    <edge id="-4" from="22" to="16" priority="-1" shape="210.00,109.50 209.81,113.47 209.22,117.40 208.26,121.26 206.92,125.00 205.22,128.59 203.17,132.00 200.81,135.19 198.14,138.14 195.19,140.81 192.00,143.17 188.59,145.22 185.00,146.92 181.26,148.26 177.40,149.22 173.47,149.80 169.50,150.00">
        <lane id="-4_0" index="0" speed="13.89" length="80.41" width="5.38" shape="218.05,110.02 217.84,114.26 217.14,118.97 215.99,123.60 214.38,128.09 212.34,132.40 209.88,136.48 207.05,140.31 203.85,143.85 200.31,147.05 196.48,149.88 192.40,152.34 188.09,154.38 183.60,155.99 178.97,157.14 174.26,157.83 160.75,158.51"/>
        <lane id="-4_1" index="1" speed="13.89" length="80.41" width="5.38" shape="212.68,109.76 212.49,113.73 211.86,117.92 210.84,122.04 209.41,126.03 207.59,129.86 205.41,133.49 202.89,136.90 200.04,140.04 196.90,142.89 193.49,145.41 189.86,147.59 186.03,149.41 182.04,150.84 177.92,151.86 173.73,152.48 160.75,153.13"/>
    </edge>
    <edge id="-5" from="16" to="28" priority="-1" shape="130.50,150.00 100.50,150.00">
        <lane id="-5_0" index="0" speed="13.89" length="38.48" width="5.38" shape="139.25,158.06 100.77,158.06"/>
        <lane id="-5_1" index="1" speed="13.89" length="38.48" width="5.38" shape="139.25,152.69 100.77,152.69"/>
    </edge>
    <edge id="-6" from="28" to="29" priority="-1" shape="100.50,150.00 96.53,149.80 92.60,149.22 88.74,148.26 85.00,146.92 81.41,145.22 78.00,143.17 74.81,140.81 71.86,138.14 69.19,135.19 66.83,132.00 64.78,128.59 63.08,125.00 61.74,121.26 60.78,117.40 60.20,113.47 60.00,109.50">
        <lane id="-6_0" index="0" speed="13.89" length="70.96" width="5.38" shape="99.82,158.04 95.74,157.83 91.03,157.14 86.40,155.99 81.91,154.38 77.60,152.34 73.52,149.88 69.69,147.05 66.15,143.85 62.95,140.31 60.12,136.48 57.66,132.40 55.62,128.09 54.01,123.60 52.86,118.97 52.17,114.26 51.96,110.18"/>
        <lane id="-6_1" index="1" speed="13.89" length="70.96" width="5.38" shape="100.09,152.67 96.27,152.48 92.08,151.86 87.96,150.84 83.97,149.41 80.14,147.59 76.51,145.41 73.10,142.89 69.96,140.04 67.11,136.90 64.59,133.49 62.41,129.86 60.59,126.03 59.16,122.04 58.14,117.92 57.52,113.73 57.33,109.91"/>
    </edge>
    <edge id="-7" from="29" to="17" priority="-1" shape="60.00,109.50 60.00,79.50">
        <lane id="-7_0" index="0" speed="13.89" length="38.48" width="5.38" shape="51.94,109.23 51.94,70.75"/>
        <lane id="-7_1" index="1" speed="13.89" length="38.48" width="5.38" shape="57.31,109.23 57.31,70.75"/>
    </edge>
    <edge id="-8" from="26" to="17" priority="-1" shape="109.50,60.00 79.50,60.00">
        <lane id="-8_0" index="0" speed="13.89" length="38.62" width="5.38" shape="109.37,68.06 70.75,68.06"/>
        <lane id="-8_1" index="1" speed="13.89" length="38.62" width="5.38" shape="109.37,62.69 70.75,62.69"/>
    </edge>
    <edge id="-9" from="26" to="27" priority="-1" shape="109.50,60.00 113.47,60.19 117.40,60.78 121.26,61.74 125.00,63.08 128.59,64.78 132.00,66.83 135.19,69.19 138.14,71.86 140.81,74.81 143.17,78.00 145.22,81.41 146.92,85.00 148.26,88.74 149.22,92.60 149.81,96.53 150.00,100.50">
        <lane id="-9_0" index="0" speed="13.89" length="71.26" width="5.38" shape="110.02,51.95 114.26,52.16 118.97,52.86 123.60,54.01 128.09,55.62 132.40,57.66 136.48,60.12 140.31,62.95 143.85,66.15 147.05,69.69 149.88,73.52 152.34,77.60 154.38,81.91 155.99,86.40 157.14,91.03 157.84,95.74 158.05,99.98"/>
        <lane id="-9_1" index="1" speed="13.89" length="71.26" width="5.38" shape="109.76,57.32 113.73,57.51 117.92,58.14 122.04,59.16 126.03,60.59 129.86,62.41 133.49,64.59 136.90,67.11 140.04,69.96 142.89,73.10 145.41,76.51 147.59,80.14 149.41,83.97 150.84,87.96 151.86,92.08 152.49,96.27 152.68,100.24"/>
    </edge>
    <edge id="0" from="25" to="17" priority="-1" shape="100.50,0.00 96.53,0.20 92.60,0.78 88.74,1.75 85.00,3.08 81.41,4.78 78.00,6.83 74.80,9.20 71.86,11.86 69.19,14.81 66.82,18.00 64.78,21.41 63.08,25.00 61.74,28.75 60.78,32.60 60.19,36.53 60.00,40.50">
        <lane id="0_0" index="0" speed="13.89" length="63.90" width="5.38" shape="100.64,8.07 97.32,8.23 94.17,8.70 91.08,9.48 88.08,10.54 85.22,11.90 82.49,13.54 79.92,15.44 77.57,17.57 75.43,19.93 73.53,22.48 71.90,25.21 70.54,28.09 69.47,31.09 68.70,34.18 68.22,37.32 67.65,49.25"/>
        <lane id="0_1" index="1" speed="13.89" length="63.90" width="5.38" shape="100.36,2.70 96.79,2.88 93.12,3.42 89.52,4.33 86.03,5.57 82.68,7.15 79.50,9.07 76.51,11.28 73.76,13.76 71.27,16.52 69.06,19.49 67.15,22.68 65.57,26.03 64.32,29.53 63.42,33.13 62.87,36.79 62.27,49.25"/>
    </edge>
    <edge id="1" from="25" to="24" priority="-1">
        <lane id="1_0" index="0" speed="13.89" length="68.60" width="5.38" shape="100.77,-8.06 169.37,-8.06"/>
        <lane id="1_1" index="1" speed="13.89" length="68.60" width="5.38" shape="100.77,-2.69 169.37,-2.69"/>
    </edge>
    <edge id="10" from="27" to="16" priority="-1" shape="150.00,100.50 150.00,130.50">
        <lane id="10_0" index="0" speed="13.89" length="38.62" width="5.38" shape="158.06,100.63 158.06,139.25"/>
        <lane id="10_1" index="1" speed="13.89" length="38.62" width="5.38" shape="152.69,100.63 152.69,139.25"/>
    </edge>
    <edge id="11" from="21" to="16" priority="-1" shape="109.50,210.00 113.47,209.80 117.40,209.22 121.26,208.26 125.00,206.92 128.59,205.22 132.00,203.17 135.19,200.81 138.14,198.14 140.81,195.19 143.17,192.00 145.22,188.59 146.92,185.00 148.26,181.26 149.22,177.40 149.81,173.47 150.00,169.50">
        <lane id="11_0" index="0" speed="13.89" length="63.90" width="5.38" shape="109.36,201.93 112.68,201.77 115.83,201.30 118.92,200.53 121.91,199.46 124.78,198.10 127.52,196.46 130.07,194.57 132.43,192.43 134.57,190.07 136.46,187.52 138.10,184.78 139.46,181.91 140.53,178.92 141.30,175.83 141.78,172.68 142.35,160.75"/>
        <lane id="11_1" index="1" speed="13.89" length="63.90" width="5.38" shape="109.63,207.30 113.21,207.12 116.88,206.58 120.48,205.68 123.97,204.43 127.32,202.85 130.51,200.93 133.48,198.73 136.24,196.24 138.73,193.48 140.93,190.51 142.85,187.32 144.43,183.97 145.68,180.48 146.58,176.88 147.13,173.21 147.73,160.75"/>
    </edge>
    <edge id="12" from="21" to="20" priority="-1">
        <lane id="12_0" index="0" speed="13.89" length="68.26" width="5.38" shape="109.23,218.06 40.97,218.07"/>
        <lane id="12_1" index="1" speed="13.89" length="68.26" width="5.38" shape="109.23,212.69 40.97,212.70"/>
    </edge>
    <edge id="13" from="19" to="20" priority="-1" shape="0.00,169.50 0.20,173.47 0.78,177.40 1.74,181.26 3.08,185.00 4.78,188.59 6.83,192.00 9.19,195.19 11.86,198.14 14.81,200.81 18.00,203.17 21.41,205.22 25.00,206.92 28.74,208.26 32.60,209.22 36.53,209.80 40.50,210.00">
        <lane id="13_0" index="0" speed="13.89" length="55.41" width="5.38" shape="8.07,169.36 8.23,172.68 8.70,175.83 9.47,178.92 10.54,181.91 11.90,184.78 13.54,187.52 15.43,190.07 17.57,192.43 19.93,194.57 22.48,196.46 25.22,198.10 28.09,199.46 31.08,200.53 34.17,201.30 37.32,201.77 40.91,201.95"/>
        <lane id="13_1" index="1" speed="13.89" length="55.41" width="5.38" shape="2.70,169.64 2.88,173.21 3.42,176.88 4.32,180.48 5.57,183.97 7.15,187.32 9.07,190.51 11.27,193.48 13.76,196.24 16.52,198.73 19.49,200.93 22.68,202.85 26.03,204.43 29.52,205.68 33.12,206.58 36.79,207.12 40.64,207.32"/>
    </edge>
    <edge id="14" from="19" to="18" priority="-1">
        <lane id="14_0" index="0" speed="13.89" length="68.60" width="5.38" shape="-8.06,169.23 -8.06,100.63"/>